# Packages
 &PACKAGES
 useOBCS=.TRUE.,
 useEXF=.TRUE.,
 useCAL=.TRUE.,
 useKPP=.TRUE.,
# usePtracers=.TRUE.,
# useRBCS=.TRUE.,
# useLayers=.TRUE.,
 &
